# generated using pymatgen
data_Ni4Mo
_symmetry_space_group_name_H-M   I4/m
_cell_length_a   5.72090100
_cell_length_b   5.72090100
_cell_length_c   3.55566297
_cell_angle_alpha   90.00000000
_cell_angle_beta   90.00000000
_cell_angle_gamma   90.00000000
_symmetry_Int_Tables_number   87
_chemical_formula_structural   Ni4Mo
_chemical_formula_sum   'Ni8 Mo2'
_cell_volume   116.37225599
_cell_formula_units_Z   2
loop_
 _symmetry_equiv_pos_site_id
 _symmetry_equiv_pos_as_xyz
  1  'x, y, z'
  2  '-x, -y, -z'
  3  'y, -x, z'
  4  '-y, x, -z'
  5  '-x, -y, z'
  6  'x, y, -z'
  7  '-y, x, z'
  8  'y, -x, -z'
  9  'x+1/2, y+1/2, z+1/2'
  10  '-x+1/2, -y+1/2, -z+1/2'
  11  'y+1/2, -x+1/2, z+1/2'
  12  '-y+1/2, x+1/2, -z+1/2'
  13  '-x+1/2, -y+1/2, z+1/2'
  14  'x+1/2, y+1/2, -z+1/2'
  15  '-y+1/2, x+1/2, z+1/2'
  16  'y+1/2, -x+1/2, -z+1/2'
loop_
 _atom_site_type_symbol
 _atom_site_label
 _atom_site_symmetry_multiplicity
 _atom_site_fract_x
 _atom_site_fract_y
 _atom_site_fract_z
 _atom_site_occupancy
  Ni  Ni1  8  0.099338  0.698410  0.500000  1
  Mo  Mo2  2  0.000000  0.000000  0.000000  1
