1
Lattice="-0.0702 1.755 1.755 1.755 0.0 1.755 1.755 1.755 0.0" Properties=species:S:1:pos:R:3:forces:R:3 energy=-5.40978447 stress="0.03191816016792548 -0.01202637071958952 -0.01202637071958952 -0.01202637071958952 0.022651547606454752 0.00027702314104320256 -0.01202637071958952 0.00027702314104320256 0.022651547606454752" pbc="T T T"
Ni       0.00000000       0.00000000       0.00000000      -0.00000000      -0.00000000       0.00000000
1
Lattice="-0.0702 1.755 1.755 1.755 -0.0702 1.755 1.755 1.755 0.0" Properties=species:S:1:pos:R:3:forces:R:3 energy=-5.39794314 stress="0.04721589306566419 -0.020455865835587658 -0.011942441146373767 -0.020455865835587658 0.04721589306566419 -0.011942441146373767 -0.011942441146373767 -0.011942441146373767 0.04162691499436465" pbc="T T T"
Ni       0.00000000       0.00000000       0.00000000       0.00000000      -0.00000000       0.00000000